Version 4
SHEET 1 880 680
WIRE 576 128 256 128
WIRE -160 144 -400 144
WIRE 128 144 -160 144
WIRE 352 160 256 160
WIRE -400 176 -400 144
WIRE -160 176 -160 144
WIRE 128 176 48 176
WIRE 304 192 256 192
WIRE 576 256 576 128
WIRE -160 304 -160 256
WIRE -80 304 -160 304
WIRE 48 304 48 176
WIRE 48 304 0 304
WIRE 96 304 48 304
WIRE 304 304 304 192
WIRE 304 304 176 304
WIRE -400 416 -400 256
WIRE -160 416 -160 304
WIRE 352 416 352 160
WIRE 576 416 576 336
FLAG -160 416 0
FLAG 352 416 0
FLAG 576 416 0
FLAG -400 416 0
SYMBOL TLV9102 192 160 R0
SYMATTR InstName U1
SYMBOL res 16 288 R90
WINDOW 0 0 56 VBottom 2
WINDOW 3 32 56 VTop 2
SYMATTR InstName R1
SYMATTR Value 10K
SYMBOL res 192 288 R90
WINDOW 0 0 56 VBottom 2
WINDOW 3 32 56 VTop 2
SYMATTR InstName R2
SYMATTR Value 10K
SYMBOL voltage 576 240 R0
WINDOW 123 0 0 Left 0
WINDOW 39 0 0 Left 0
SYMATTR InstName V1
SYMATTR Value 12
SYMBOL res -176 160 R0
SYMATTR InstName R3
SYMATTR Value 10K
SYMBOL voltage -400 160 R0
WINDOW 123 0 0 Left 0
WINDOW 39 24 124 Left 2
SYMATTR InstName V2
SYMATTR Value SINE(2.5 2.5 150K 0 0 0)
SYMATTR SpiceLine Rser=5
TEXT -360 8 Left 2 !.tran 0.001
